@<TRIPOS>MOLECULE
UNK
17 18 1 0 1
SMALL
USER_CHARGES
@<TRIPOS>CRYSIN
   62.2825    65.5959    67.7711    90.0000    90.0000    90.0000 1 1
@<TRIPOS>ATOM
       1 C1          24.0628    29.4709    26.0034 ca            1 UNK       -0.114000
       2 C2          23.2348    29.1499    24.9194 ca            1 UNK       -0.139000
       3 C3          22.8778    27.8179    24.7534 ca            1 UNK        0.019100
       4 C4          23.3108    26.8479    25.6084 ca            1 UNK        0.016100
       5 C5          24.1328    27.1379    26.6924 ca            1 UNK       -0.078000
       6 C6          24.5228    28.4789    26.9024 ca            1 UNK       -0.127600
       7 C7          25.4098    28.8439    28.0574 c             1 UNK        0.910200
       8 O8          25.7878    27.9269    28.8214 o             1 UNK       -0.826800
       9 O9          25.7258    30.0479    28.1984 o             1 UNK       -0.826800
      10 O10         22.8158    25.6449    25.2174 os            1 UNK       -0.349900
      11 C11         22.0438    25.8869    24.0694 c3            1 UNK        0.325200
      12 O12         22.0948    27.2629    23.7934 os            1 UNK       -0.356900
      13 H13         24.3438    30.5059    26.1374 ha            1 UNK        0.159000
      14 H14         22.8928    29.9189    24.2434 ha            1 UNK        0.128000
      15 H15         24.4598    26.3479    27.3524 ha            1 UNK        0.173000
      16 H16         22.4668    25.3359    23.2284 h2            1 UNK        0.045700
      17 H17         21.0108    25.5979    24.2634 h2            1 UNK        0.045700
@<TRIPOS>BOND
       1       11       12 1
       2       10       11 1
       3        7        8 1
       4        7        9 1
       5        6        7 1
       6        5        6 1
       7        4        5 1
       8        4       10 1
       9        3       12 1
      10        3        4 1
      11        2        3 1
      12        1        6 1
      13        1        2 1
      14       11       16 1
      15       11       17 1
      16        5       15 1
      17        2       14 1
      18        1       13 1
@<TRIPOS>SUBSTRUCTURE
       1 UNK             1 RESIDUE    0 **** ROOT      0
