@<TRIPOS>MOLECULE
2e
   42    45     1     0     0
SMALL
bcc


@<TRIPOS>ATOM
      1 C1          65.9480    34.1220    75.5780 c3         1 UNK      -0.087100
      2 C2          67.2540    33.8420    74.8940 c3         1 UNK      -0.064700
      3 C3          67.4400    32.3620    74.5400 c3         1 UNK      -0.071400
      4 C4          68.2570    32.3180    73.2330 c3         1 UNK      -0.014400
      5 C5          67.5480    31.5340    72.1310 ca         1 UNK      -0.089300
      6 C6          67.1780    30.1850    72.3320 ca         1 UNK      -0.189000
      7 C7          66.5040    29.4780    71.3150 ca         1 UNK       0.100100
      8 O8          66.1230    28.1840    71.4970 oh         1 UNK      -0.499100
      9 C9          66.2050    30.1070    70.0940 ca         1 UNK      -0.133000
     10 C10         66.5400    31.4530    69.9000 ca         1 UNK      -0.115000
     11 C11         67.2110    32.1630    70.9100 ca         1 UNK       0.087100
     12 O12         67.4800    33.4780    70.6710 os         1 UNK      -0.323900
     13 C13         68.6100    34.0260    71.3280 c3         1 UNK       0.200400
     14 C14         68.7640    35.4860    70.9410 ca         1 UNK      -0.121300
     15 C15         69.9140    36.2040    71.3260 ca         1 UNK      -0.077000
     16 C16         70.0620    37.5520    70.9520 ca         1 UNK      -0.187500
     17 C17         69.0700    38.1780    70.1730 ca         1 UNK       0.127100
     18 O18         69.1940    39.4820    69.8080 oh         1 UNK      -0.497100
     19 C19         67.9340    37.4600    69.7690 ca         1 UNK      -0.187500
     20 C20         67.7710    36.1260    70.1640 ca         1 UNK      -0.077000
     21 C21         68.5250    33.7910    72.8520 c3         1 UNK      -0.084700
     22 C22         67.4310    34.5860    73.5720 c3         1 UNK      -0.072400
     23 H23         65.1080    33.8480    74.9400 hc         1 UNK       0.036367
     24 H24         65.8630    33.5510    76.5030 hc         1 UNK       0.036367
     25 H25         65.8480    35.1780    75.8280 hc         1 UNK       0.036367
     26 H26         68.0690    34.1270    75.5610 hc         1 UNK       0.044700
     27 H27         67.9140    31.7920    75.3400 hc         1 UNK       0.047200
     28 H28         66.4570    31.9180    74.3700 hc         1 UNK       0.047200
     29 H29         69.2150    31.8320    73.4200 hc         1 UNK       0.057700
     30 H30         67.3980    29.7000    73.2720 ha         1 UNK       0.135000
     31 H31         66.6310    27.7360    72.1560 ho         1 UNK       0.417000
     32 H32         65.7190    29.5570    69.3020 ha         1 UNK       0.153000
     33 H33         66.2940    31.9380    68.9670 ha         1 UNK       0.152000
     34 H34         69.4800    33.4890    70.9450 h1         1 UNK       0.053700
     35 H35         70.6890    35.7240    71.9050 ha         1 UNK       0.143000
     36 H36         70.9400    38.0990    71.2640 ha         1 UNK       0.143000
     37 H37         69.9850    39.8850    70.1310 ho         1 UNK       0.419000
     38 H38         67.1850    37.9340    69.1510 ha         1 UNK       0.143000
     39 H39         66.8820    35.5870    69.8720 ha         1 UNK       0.143000
     40 H40         69.4830    34.0720    73.2930 hc         1 UNK       0.057700
     41 H41         66.5040    34.5530    72.9980 hc         1 UNK       0.054700
     42 H42         67.6980    35.6330    73.7160 hc         1 UNK       0.054700
@<TRIPOS>BOND
     1     1     2 1
     2     1    23 1
     3     1    24 1
     4     1    25 1
     5     2    22 1
     6     2     3 1
     7     2    26 1
     8     3     4 1
     9     3    27 1
    10     3    28 1
    11     4    21 1
    12     4     5 1
    13     4    29 1
    14     5    11 ar
    15     5     6 ar
    16     6     7 ar
    17     6    30 1
    18     7     8 1
    19     7     9 ar
    20     8    31 1
    21     9    10 ar
    22     9    32 1
    23    10    11 ar
    24    10    33 1
    25    11    12 1
    26    12    13 1
    27    13    14 1
    28    13    21 1
    29    13    34 1
    30    14    20 ar
    31    14    15 ar
    32    15    16 ar
    33    15    35 1
    34    16    17 ar
    35    16    36 1
    36    17    18 1
    37    17    19 ar
    38    18    37 1
    39    19    20 ar
    40    19    38 1
    41    20    39 1
    42    21    22 1
    43    21    40 1
    44    22    41 1
    45    22    42 1
@<TRIPOS>SUBSTRUCTURE
     1 UNK         1 TEMP              0 ****  ****    0 ROOT
