@<TRIPOS>MOLECULE
UNK
21 22 1 0 1
SMALL
USER_CHARGES
@<TRIPOS>CRYSIN
   62.2825    65.5959    67.7711    90.0000    90.0000    90.0000 1 1
@<TRIPOS>ATOM
       1 C1          22.1758    25.1109    24.2844 ca            1 UNK       -0.174000
       2 C2          21.6948    26.0969    23.4294 ca            1 UNK       -0.141000
       3 C3          22.0178    27.4349    23.6414 ca            1 UNK       -0.137000
       4 C4          22.8418    27.8079    24.7334 ca            1 UNK        0.000000
       5 C5          23.1908    29.1529    24.9804 ca            1 UNK       -0.287000
       6 C6          24.0028    29.5009    26.0604 ca            1 UNK        0.177100
       7 C7          24.5028    28.5139    26.9424 ca            1 UNK       -0.132600
       8 C8          24.1558    27.1739    26.6974 ca            1 UNK       -0.091000
       9 C9          23.3338    26.7989    25.6084 ca            1 UNK       -0.074000
      10 C10         22.9868    25.4459    25.3654 ca            1 UNK       -0.096000
      11 C11         25.3858    28.8319    28.1264 c             1 UNK        0.914200
      12 O12         25.7718    27.8789    28.8424 o             1 UNK       -0.818300
      13 O13         25.6998    30.0219    28.3534 o             1 UNK       -0.818300
      14 O14         24.2728    30.8409    26.1974 oh            1 UNK       -0.434100
      15 H15         21.9178    24.0769    24.1084 ha            1 UNK        0.111000
      16 H16         21.0668    25.8229    22.5954 ha            1 UNK        0.108000
      17 H17         21.6408    28.1959    22.9724 ha            1 UNK        0.113000
      18 H18         22.8168    29.9189    24.3144 ha            1 UNK        0.112000
      19 H19         24.5128    26.3839    27.3434 ha            1 UNK        0.163000
      20 H20         23.3568    24.6739    26.0254 ha            1 UNK        0.124000
      21 H21         23.8588    31.3769    25.5174 ho            1 UNK        0.381000
@<TRIPOS>BOND
       1       11       12 1
       2       11       13 1
       3        9       10 1
       4        8        9 1
       5        7        8 1
       6        7       11 1
       7        6        7 1
       8        6       14 1
       9        5        6 1
      10        4        9 1
      11        4        5 1
      12        3        4 1
      13        2        3 1
      14        1       10 1
      15        1        2 1
      16       14       21 1
      17       10       20 1
      18        8       19 1
      19        5       18 1
      20        3       17 1
      21        2       16 1
      22        1       15 1
@<TRIPOS>SUBSTRUCTURE
       1 UNK             1 RESIDUE    0 **** ROOT      0
