@<TRIPOS>MOLECULE
2d
   42    45     1     0     0
SMALL
bcc


@<TRIPOS>ATOM
      1 O1          69.1940    39.4820    69.8080 oh         1 UNK      -0.495100
      2 C2          69.0700    38.1780    70.1730 ca         1 UNK       0.131100
      3 C3          67.9340    37.4600    69.7690 ca         1 UNK      -0.187000
      4 C4          67.7710    36.1260    70.1640 ca         1 UNK      -0.076000
      5 C5          68.7640    35.4860    70.9410 ca         1 UNK      -0.128300
      6 C6          68.6100    34.0260    71.3280 c3         1 UNK       0.202400
      7 O7          67.4800    33.4780    70.6710 os         1 UNK      -0.320900
      8 C8          67.2110    32.1630    70.9100 ca         1 UNK       0.089100
      9 C9          66.5400    31.4530    69.9000 ca         1 UNK      -0.111000
     10 C10         66.2050    30.1070    70.0940 ca         1 UNK      -0.129000
     11 C11         66.5040    29.4780    71.3150 ca         1 UNK       0.104100
     12 O12         66.1230    28.1840    71.4970 oh         1 UNK      -0.496100
     13 C13         67.1780    30.1850    72.3320 ca         1 UNK      -0.188000
     14 C14         67.5480    31.5340    72.1310 ca         1 UNK      -0.097300
     15 C15         68.2570    32.3180    73.2330 c3         1 UNK      -0.011400
     16 C16         67.4400    32.3620    74.5400 c3         1 UNK      -0.073400
     17 C17         67.2540    33.8420    74.8940 c3         1 UNK      -0.098700
     18 C18         65.9290    34.1680    75.6080 c3         1 UNK       0.627900
     19 F19         64.8810    33.8360    74.8550 f          1 UNK      -0.239633
     20 F20         65.8640    33.4990    76.7590 f          1 UNK      -0.239633
     21 F21         65.8740    35.4730    75.8740 f          1 UNK      -0.239633
     22 C22         67.4310    34.5860    73.5720 c3         1 UNK      -0.074400
     23 C23         68.5250    33.7910    72.8520 c3         1 UNK      -0.082700
     24 C24         69.9140    36.2040    71.3260 ca         1 UNK      -0.076000
     25 C25         70.0620    37.5520    70.9520 ca         1 UNK      -0.187000
     26 H26         69.9850    39.8850    70.1300 ho         1 UNK       0.420000
     27 H27         67.1850    37.9340    69.1510 ha         1 UNK       0.145000
     28 H28         66.8810    35.5870    69.8710 ha         1 UNK       0.143500
     29 H29         69.5010    33.5090    70.9650 h1         1 UNK       0.056700
     30 H30         66.2970    31.9440    68.9690 ha         1 UNK       0.154000
     31 H31         65.7190    29.5530    69.3040 ha         1 UNK       0.155000
     32 H32         66.3600    27.8420    72.3450 ho         1 UNK       0.418000
     33 H33         67.3980    29.7010    73.2720 ha         1 UNK       0.135000
     34 H34         69.2130    31.8280    73.4180 hc         1 UNK       0.063700
     35 H35         66.4560    31.9200    74.3760 hc         1 UNK       0.063700
     36 H36         67.9120    31.7990    75.3460 hc         1 UNK       0.063700
     37 H37         68.0790    34.1380    75.5440 hc         1 UNK       0.083700
     38 H38         66.5040    34.5540    72.9980 hc         1 UNK       0.071700
     39 H39         67.6980    35.6330    73.7170 hc         1 UNK       0.071700
     40 H40         69.4840    34.0770    73.2870 hc         1 UNK       0.061700
     41 H41         70.6890    35.7240    71.9050 ha         1 UNK       0.143500
     42 H42         70.9390    38.1010    71.2630 ha         1 UNK       0.145000
@<TRIPOS>BOND
     1     1     2 1
     2     1    26 1
     3     2    25 ar
     4     2     3 ar
     5     3     4 ar
     6     3    27 1
     7     4     5 ar
     8     4    28 1
     9     5     6 1
    10     5    24 ar
    11     6    23 1
    12     6     7 1
    13     6    29 1
    14     7     8 1
    15     8    14 ar
    16     8     9 ar
    17     9    10 ar
    18     9    30 1
    19    10    11 ar
    20    10    31 1
    21    11    12 1
    22    11    13 ar
    23    12    32 1
    24    13    14 ar
    25    13    33 1
    26    14    15 1
    27    15    23 1
    28    15    16 1
    29    15    34 1
    30    16    17 1
    31    16    35 1
    32    16    36 1
    33    17    18 1
    34    17    22 1
    35    17    37 1
    36    18    19 1
    37    18    20 1
    38    18    21 1
    39    22    23 1
    40    22    38 1
    41    22    39 1
    42    23    40 1
    43    24    25 ar
    44    24    41 1
    45    25    42 1
@<TRIPOS>SUBSTRUCTURE
     1 UNK         1 TEMP              0 ****  ****    0 ROOT
