@<TRIPOS>MOLECULE
3b
   41    44     1     0     0
SMALL
bcc


@<TRIPOS>ATOM
      1 O1          67.2380    35.6020    75.7490 o          1 UNK      -0.530100
      2 C2          67.5150    34.6510    75.0210 c          1 UNK       0.572100
      3 C3          67.8630    33.2790    75.5980 c3         1 UNK      -0.184400
      4 C4          67.5280    32.1670    74.5920 c3         1 UNK      -0.068400
      5 C5          68.2570    32.3180    73.2330 c3         1 UNK      -0.013400
      6 C6          67.5480    31.5340    72.1310 ca         1 UNK      -0.101300
      7 C7          67.1780    30.1850    72.3320 ca         1 UNK      -0.187000
      8 C8          66.5040    29.4780    71.3150 ca         1 UNK       0.101100
      9 O9          66.1230    28.1840    71.4970 oh         1 UNK      -0.497100
     10 C10         66.2050    30.1070    70.0940 ca         1 UNK      -0.129000
     11 C11         66.5400    31.4530    69.9000 ca         1 UNK      -0.114000
     12 C12         67.2110    32.1630    70.9100 ca         1 UNK       0.087100
     13 O13         67.4800    33.4780    70.6710 os         1 UNK      -0.321900
     14 C14         68.6100    34.0260    71.3280 c3         1 UNK       0.198400
     15 C15         68.7640    35.4860    70.9410 ca         1 UNK      -0.129300
     16 C16         67.7710    36.1260    70.1640 ca         1 UNK      -0.076000
     17 C17         67.9340    37.4600    69.7690 ca         1 UNK      -0.186500
     18 C18         69.0700    38.1780    70.1730 ca         1 UNK       0.132100
     19 O19         69.1940    39.4820    69.8080 oh         1 UNK      -0.494100
     20 C20         70.0620    37.5520    70.9520 ca         1 UNK      -0.186500
     21 C21         69.9140    36.2040    71.3260 ca         1 UNK      -0.076000
     22 C22         68.5250    33.7910    72.8520 c3         1 UNK      -0.077700
     23 C23         67.5260    34.7860    73.4980 c3         1 UNK      -0.180400
     24 H24         68.9240    33.2580    75.8480 hc         1 UNK       0.072700
     25 H25         67.3090    33.1290    76.5250 hc         1 UNK       0.072700
     26 H26         67.7420    31.1910    75.0300 hc         1 UNK       0.052200
     27 H27         66.4490    32.1850    74.4250 hc         1 UNK       0.052200
     28 H28         69.2350    31.8450    73.3320 hc         1 UNK       0.058700
     29 H29         67.3990    29.6950    73.2690 ha         1 UNK       0.135000
     30 H30         66.4960    27.7920    72.2710 ho         1 UNK       0.417000
     31 H31         65.7230    29.5560    69.3000 ha         1 UNK       0.155000
     32 H32         66.2960    31.9360    68.9660 ha         1 UNK       0.154000
     33 H33         69.4850    33.4960    70.9450 h1         1 UNK       0.056700
     34 H34         66.8770    35.5940    69.8740 ha         1 UNK       0.143000
     35 H35         67.1800    37.9310    69.1540 ha         1 UNK       0.145500
     36 H36         69.9730    39.8920    70.1500 ho         1 UNK       0.420000
     37 H37         70.9360    38.1060    71.2640 ha         1 UNK       0.145500
     38 H38         70.6840    35.7210    71.9100 ha         1 UNK       0.143000
     39 H39         69.5130    34.0380    73.2460 hc         1 UNK       0.061700
     40 H40         66.5190    34.6130    73.1200 hc         1 UNK       0.088200
     41 H41         67.7890    35.8150    73.2510 hc         1 UNK       0.088200
@<TRIPOS>BOND
     1     1     2 2
     2     2    23 1
     3     2     3 1
     4     3     4 1
     5     3    24 1
     6     3    25 1
     7     4     5 1
     8     4    26 1
     9     4    27 1
    10     5    22 1
    11     5     6 1
    12     5    28 1
    13     6    12 ar
    14     6     7 ar
    15     7     8 ar
    16     7    29 1
    17     8     9 1
    18     8    10 ar
    19     9    30 1
    20    10    11 ar
    21    10    31 1
    22    11    12 ar
    23    11    32 1
    24    12    13 1
    25    13    14 1
    26    14    15 1
    27    14    22 1
    28    14    33 1
    29    15    21 ar
    30    15    16 ar
    31    16    17 ar
    32    16    34 1
    33    17    18 ar
    34    17    35 1
    35    18    19 1
    36    18    20 ar
    37    19    36 1
    38    20    21 ar
    39    20    37 1
    40    21    38 1
    41    22    23 1
    42    22    39 1
    43    23    40 1
    44    23    41 1
@<TRIPOS>SUBSTRUCTURE
     1 UNK         1 TEMP              0 ****  ****    0 ROOT
