@<TRIPOS>MOLECULE
<0>
196 216 1 0 1
SMALL
USER_CHARGES
@<TRIPOS>CRYSIN
   62.2825    65.5959    67.7711    90.0000    90.0000    90.0000 1 1
@<TRIPOS>ATOM
       1 H1          17.6658    27.6679    23.3774 ha            1 <0>        0.142000
       2 C1          17.5868    26.7169    22.8764 ca            1 <0>       -0.162250
       3 C2          17.3308    24.2569    21.5914 ca            1 <0>       -0.091750
       4 C3          17.1598    25.5969    23.5974 ca            1 <0>        0.065475
       5 C4          17.9528    26.6089    21.5264 ca            1 <0>        0.065475
       6 C5          17.8158    25.3659    20.8764 ca            1 <0>       -0.051550
       7 C6          17.0318    24.3529    22.9564 ca            1 <0>       -0.051550
       8 H2          17.1968    23.3059    21.0864 ha            1 <0>        0.160750
       9 C7          16.5248    23.1529    23.7764 c3            1 <0>        0.009900
      10 H3          15.8938    23.5819    24.5614 hc            1 <0>        0.096200
      11 C8          18.1928    25.2639    19.3904 c3            1 <0>        0.009900
      12 H4          18.0278    26.2679    18.9764 hc            1 <0>        0.096200
      13 C9          17.6768    22.4569    24.5424 ca            1 <0>       -0.051550
      14 C10         19.7968    21.1889    25.8964 ca            1 <0>        0.065475
      15 C11         18.0568    22.8829    25.8294 ca            1 <0>        0.065475
      16 C12         18.3458    21.3689    23.9804 ca            1 <0>       -0.091750
      17 C13         19.4358    20.7699    24.6044 ca            1 <0>       -0.051550
      18 C14         19.0798    22.2119    26.5214 ca            1 <0>       -0.162250
      19 H5          18.0618    21.0229    22.9974 ha            1 <0>        0.160750
      20 H6          19.3438    22.5109    27.5254 ha            1 <0>        0.142000
      21 C15         19.6978    24.9789    19.2914 ca            1 <0>       -0.051550
      22 C16         22.4418    24.4859    19.5344 ca            1 <0>        0.065475
      23 C17         20.1788    23.6689    19.4034 ca            1 <0>       -0.091750
      24 C18         20.6078    26.0479    19.1974 ca            1 <0>        0.065475
      25 C19         21.9758    25.7909    19.3314 ca            1 <0>       -0.162250
      26 C20         21.5438    23.4019    19.5314 ca            1 <0>       -0.051550
      27 H7          19.4728    22.8499    19.4484 ha            1 <0>        0.160750
      28 H8          22.6718    26.6159    19.3444 ha            1 <0>        0.142000
      29 C21         22.0748    21.9589    19.6434 c3            1 <0>        0.009900
      30 H9          23.1048    22.0229    19.2704 hc            1 <0>        0.096200
      31 C22         20.2588    19.6869    23.8924 c3            1 <0>        0.009900
      32 H10         20.7258    19.1229    24.7034 hc            1 <0>        0.096200
      33 C23         21.3958    20.3519    23.1044 ca            1 <0>       -0.051550
      34 C24         23.4128    21.8079    21.8124 ca            1 <0>        0.065475
      35 C25         22.6228    20.5749    23.7554 ca            1 <0>        0.065475
      36 C26         21.2288    20.7789    21.7774 ca            1 <0>       -0.091750
      37 C27         22.2228    21.5149    21.1174 ca            1 <0>       -0.051550
      38 C28         23.6258    21.2969    23.1034 ca            1 <0>       -0.162250
      39 H11         20.3058    20.5469    21.2634 ha            1 <0>        0.160750
      40 H12         24.5418    21.5149    23.6314 ha            1 <0>        0.142000
      41 C29         17.2748    24.3689    18.5054 c3            1 <0>       -0.063900
      42 H13         17.3588    23.3149    18.7924 hc            1 <0>        0.056075
      43 C30         15.5468    22.1809    23.0574 c3            1 <0>       -0.063900
      44 H14         16.1098    21.5119    22.3994 hc            1 <0>        0.056075
      45 O1          24.4068    22.6039    21.2594 os            1 <0>       -0.335775
      46 O2          23.7898    24.3099    19.7894 os            1 <0>       -0.335775
      47 O3          22.7958    20.2659    25.1064 os            1 <0>       -0.335775
      48 O4          16.8888    25.7399    24.9484 os            1 <0>       -0.335775
      49 O5          17.4808    24.0009    26.4154 os            1 <0>       -0.335775
      50 O6          20.9268    20.6789    26.5204 os            1 <0>       -0.335775
      51 C31         17.8638    25.2469    25.8464 c3            1 <0>        0.365200
      52 H15         18.8288    25.1429    25.3454 h2            1 <0>        0.067700
      53 C32         22.1578    21.1539    26.0004 c3            1 <0>        0.365200
      54 H16         21.9448    22.0189    25.4004 h2            1 <0>        0.067700
      55 O7          18.4468    27.7369    20.8664 os            1 <0>       -0.335775
      56 C33         19.8398    27.7879    20.5804 c3            1 <0>        0.365200
      57 H17         20.3798    27.0889    21.1974 h2            1 <0>        0.067700
      58 O8          20.1788    27.3759    19.2674 os            1 <0>       -0.335775
      59 C34         24.1438    23.9899    21.1254 c3            1 <0>        0.365200
      60 H18         23.3648    24.2969    21.8424 h2            1 <0>        0.067700
      61 C35         20.3938    29.2119    20.9464 ca            1 <0>       -0.030550
      62 C36         21.6218    31.5269    21.9424 ca            1 <0>       -0.193000
      63 C37         21.6468    29.6209    20.4534 ca            1 <0>       -0.176750
      64 C38         19.7608    29.9929    21.9334 ca            1 <0>       -0.176750
      65 C39         20.3818    31.1499    22.4444 ca            1 <0>        0.136100
      66 C40         22.2668    30.7729    20.9714 ca            1 <0>        0.136100
      67 H19         22.1518    29.0219    19.7064 ha            1 <0>        0.167000
      68 H20         18.8058    29.6819    22.3394 ha            1 <0>        0.167000
      69 C41         25.4608    24.7669    21.4444 ca            1 <0>       -0.030550
      70 C42         27.7538    26.2169    22.1284 ca            1 <0>       -0.193000
      71 C43         25.6968    26.0289    20.8804 ca            1 <0>       -0.176750
      72 C44         26.3858    24.2399    22.3584 ca            1 <0>       -0.176750
      73 C45         27.5328    24.9699    22.7034 ca            1 <0>        0.136100
      74 C46         26.8478    26.7609    21.2194 ca            1 <0>        0.136100
      75 H21         24.9978    26.4409    20.1664 ha            1 <0>        0.167000
      76 H22         26.2168    23.2629    22.7914 ha            1 <0>        0.167000
      77 C47         23.1158    21.6549    27.1324 ca            1 <0>       -0.030550
      78 C48         24.7758    22.9449    28.9834 ca            1 <0>       -0.193000
      79 C49         24.4928    21.7779    26.8854 ca            1 <0>       -0.176750
      80 C50         22.5838    22.1789    28.3254 ca            1 <0>       -0.176750
      81 C51         23.4178    22.8339    29.2494 ca            1 <0>        0.136100
      82 C52         25.3288    22.4289    27.8104 ca            1 <0>        0.136100
      83 H23         24.9218    21.3439    25.9914 ha            1 <0>        0.167000
      84 H24         21.5338    22.0519    28.5444 ha            1 <0>        0.167000
      85 C53         18.0648    26.2979    26.9724 ca            1 <0>       -0.030550
      86 C54         18.6528    28.2029    28.9264 ca            1 <0>       -0.193000
      87 C55         17.8918    27.6669    26.7014 ca            1 <0>       -0.176750
      88 C56         18.5428    25.8979    28.2224 ca            1 <0>       -0.176750
      89 C57         18.8388    26.8499    29.2114 ca            1 <0>        0.136100
      90 C58         18.1918    28.6229    27.6824 ca            1 <0>        0.136100
      91 H25         17.5168    27.9799    25.7354 ha            1 <0>        0.167000
      92 H26         18.6828    24.8459    28.4324 ha            1 <0>        0.167000
      93 O9          19.8808    31.9329    23.4634 os            1 <0>       -0.268700
      94 O10         27.1638    28.0019    20.7044 os            1 <0>       -0.268700
      95 O11         28.4908    24.5249    23.5944 os            1 <0>       -0.268700
      96 O12         18.0498    29.9889    27.5154 os            1 <0>       -0.268700
      97 O13         26.6898    22.5919    27.6664 os            1 <0>       -0.268700
      98 O14         22.9918    23.3789    30.4484 os            1 <0>       -0.268700
      99 O15         19.2998    26.5299    30.4714 os            1 <0>       -0.268700
     100 O16         23.5288    31.2119    20.6174 os            1 <0>       -0.268700
     101 C59         28.2348    23.4519    24.4194 ca            1 <0>        0.084475
     102 C60         27.8518    21.2449    26.0814 ca            1 <0>       -0.115125
     103 C61         27.5008    23.5959    25.6094 ca            1 <0>       -0.130800
     104 C62         28.7718    22.2059    24.0754 ca            1 <0>       -0.115125
     105 C63         28.5898    21.0879    24.8924 ca            1 <0>       -0.111850
     106 C64         27.3078    22.4749    26.4374 ca            1 <0>        0.084475
     107 H27         29.3488    22.1219    23.1584 ha            1 <0>        0.161500
     108 H28         27.7138    20.3969    26.7434 ha            1 <0>        0.161500
     109 C65         21.6688    23.6929    30.6734 ca            1 <0>        0.084475
     110 C66         19.0208    24.3169    31.3294 ca            1 <0>       -0.115125
     111 C67         21.1708    24.9809    30.4094 ca            1 <0>       -0.130800
     112 C68         20.8428    22.7409    31.2874 ca            1 <0>       -0.115125
     113 C69         19.5148    23.0319    31.6254 ca            1 <0>       -0.111850
     114 C70         19.8288    25.2759    30.7204 ca            1 <0>        0.084475
     115 H29         21.2628    21.7679    31.5214 ha            1 <0>        0.161500
     116 H30         17.9948    24.5679    31.5814 ha            1 <0>        0.161500
     117 C71         17.9018    30.5499    26.2654 ca            1 <0>        0.084475
     118 C72         17.5298    31.8879    23.8434 ca            1 <0>       -0.115125
     119 C73         16.6168    30.9249    25.8514 ca            1 <0>       -0.115125
     120 C74         19.0118    30.8539    25.4594 ca            1 <0>       -0.130800
     121 C75         18.8128    31.5239    24.2384 ca            1 <0>        0.084475
     122 C76         16.4108    31.6009    24.6444 ca            1 <0>       -0.111850
     123 H31         15.7758    30.7089    26.5044 ha            1 <0>        0.161500
     124 H32         17.3988    32.4369    22.9184 ha            1 <0>        0.161500
     125 C77         24.4178    30.3709    19.9904 ca            1 <0>        0.084475
     126 C78         26.2858    28.8079    18.6394 ca            1 <0>       -0.115125
     127 C79         25.2828    29.5429    20.7224 ca            1 <0>       -0.130800
     128 C80         24.4888    30.4059    18.5934 ca            1 <0>       -0.115125
     129 C81         25.4068    29.6179    17.8944 ca            1 <0>       -0.111850
     130 C82         26.2288    28.7639    20.0314 ca            1 <0>        0.084475
     131 H33         23.8118    31.0639    18.0574 ha            1 <0>        0.161500
     132 H34         27.0258    28.2109    18.1194 ha            1 <0>        0.161500
     133 H35         15.1478    21.5189    23.8234 hc            1 <0>        0.056075
     134 C83         19.4318    18.6119    23.1374 c3            1 <0>       -0.063900
     135 C84         21.4188    20.9349    18.6524 c3            1 <0>       -0.063900
     136 H36         16.2338    24.6399    18.7204 hc            1 <0>        0.056075
     137 H37         20.4388    20.6039    19.0214 hc            1 <0>        0.056075
     138 H38         21.2208    21.4759    17.7194 hc            1 <0>        0.056075
     139 H39         18.8978    19.0709    22.2994 hc            1 <0>        0.056075
     140 H40         18.6428    18.2979    23.8174 hc            1 <0>        0.056075
     141 C85         15.0448    32.0719    24.2414 c             1 <0>        0.911200
     142 C86         18.6428    22.0179    32.3114 c             1 <0>        0.911200
     143 C87         29.1968    19.7629    24.5404 c             1 <0>        0.911200
     144 C88         25.4788    29.6489    16.3954 c             1 <0>        0.911200
     145 O17         14.0898    31.8689    25.0264 o             1 <0>       -0.848800
     146 O18         19.1318    20.9009    32.5894 o             1 <0>       -0.848800
     147 O19         29.8418    19.6739    23.4674 o             1 <0>       -0.848800
     148 O20         24.6828    30.3939    15.7774 o             1 <0>       -0.848800
     149 C89         20.2538    17.3549    22.7124 c3            1 <0>       -0.187400
     150 H41         21.2748    17.3879    23.1104 hc            1 <0>        0.035075
     151 H42         19.7988    16.4449    23.1014 hc            1 <0>        0.035075
     152 C90         17.5898    24.5569    16.9884 c3            1 <0>       -0.187400
     153 H43         17.7988    25.6099    16.7844 hc            1 <0>        0.035075
     154 H44         18.4828    23.9919    16.7074 hc            1 <0>        0.035075
     155 C91         22.3148    19.6829    18.3414 c3            1 <0>       -0.187400
     156 H45         22.2018    18.9349    19.1294 hc            1 <0>        0.035075
     157 H46         23.3688    19.9699    18.3324 hc            1 <0>        0.035075
     158 C92         14.3358    22.8309    22.3234 c3            1 <0>       -0.187400
     159 H47         14.2788    23.9109    22.5124 hc            1 <0>        0.035075
     160 H48         13.4048    22.3989    22.6894 hc            1 <0>        0.035075
     161 C93         16.4658    24.2319    15.9954 c             1 <0>        0.905600
     162 C94         22.1178    19.0169    16.9594 c             1 <0>        0.905600
     163 C95         14.3098    22.6159    20.8034 c             1 <0>        0.905600
     164 C96         20.3988    17.1539    21.2054 c             1 <0>        0.905600
     165 O21         22.5738    17.8569    16.8064 o             1 <0>       -0.871425
     166 O22         19.9878    18.0279    20.4254 o             1 <0>       -0.871425
     167 O23         15.2758    24.4989    16.2894 o             1 <0>       -0.871425
     168 O24         15.1928    21.9219    20.2574 o             1 <0>       -0.871425
     169 H49         25.4288    23.4129    29.7244 ha            1 <0>        0.146000
     170 H50         28.6518    26.7739    22.3884 ha            1 <0>        0.146000
     171 H51         22.1188    32.4049    22.3524 ha            1 <0>        0.146000
     172 H52         18.8618    28.9459    29.6934 ha            1 <0>        0.146000
     173 O25         29.0338    18.8049    25.3394 o             1 <0>       -0.848800
     174 O26         17.4528    22.3419    32.5714 o             1 <0>       -0.848800
     175 O27         14.9298    32.6739    23.1394 o             1 <0>       -0.848800
     176 O28         26.3328    28.9139    15.8314 o             1 <0>       -0.848800
     177 O29         20.9118    16.0499    20.8594 o             1 <0>       -0.871425
     178 O30         21.6628    19.6999    16.0104 o             1 <0>       -0.871425
     179 O31         16.8348    23.8549    14.8584 o             1 <0>       -0.871425
     180 O32         13.3138    23.1079    20.2114 o             1 <0>       -0.871425
     181 C97         22.0808    26.0759    29.8524 c3            1 <0>       -0.056800
     182 H61         21.8548    27.0329    30.3284 hc            1 <0>        0.049200
     183 H62         21.9208    26.1989    28.7814 hc            1 <0>        0.049200
     184 H63         23.1388    25.8759    30.0444 hc            1 <0>        0.049200
     185 C98         20.4188    30.5099    25.9364 c3            1 <0>       -0.056800
     186 H64         21.1588    31.2129    25.5474 hc            1 <0>        0.049200
     187 H65         20.6728    29.4999    25.6144 hc            1 <0>        0.049200
     188 H66         20.4868    30.5569    27.0254 hc            1 <0>        0.049200
     189 C99         25.2278    29.5139    22.2464 c3            1 <0>       -0.056800
     190 H67         24.8668    30.4639    22.6434 hc            1 <0>        0.049200
     191 H68         26.2178    29.3539    22.6794 hc            1 <0>        0.049200
     192 H69         24.5698    28.7089    22.5794 hc            1 <0>        0.049200
     193 C100        26.9668    24.9609    26.0214 c3            1 <0>       -0.056800
     194 H70         25.9328    25.0889    25.6914 hc            1 <0>        0.049200
     195 H71         27.5798    25.7629    25.6074 hc            1 <0>        0.049200
     196 H72         27.0018    25.0809    27.1054 hc            1 <0>        0.049200
@<TRIPOS>BOND
       1      164      166 1
       2      164      177 1
       3      163      168 1
       4      163      180 1
       5      162      165 1
       6      162      178 1
       7      161      167 1
       8      161      179 1
       9      158      163 1
      10      155      162 1
      11      152      161 1
      12      149      164 1
      13      144      148 1
      14      144      176 1
      15      143      147 1
      16      143      173 1
      17      142      146 1
      18      142      174 1
      19      141      145 1
      20      141      175 1
      21      135      155 1
      22      134      149 1
      23      129      144 1
      24      128      129 1
      25      127      130 1
      26      127      189 1
      27      126      129 1
      28      126      130 1
      29      125      128 1
      30      125      127 1
      31      122      141 1
      32      120      121 1
      33      120      185 1
      34      119      122 1
      35      118      121 1
      36      118      122 1
      37      117      120 1
      38      117      119 1
      39      113      142 1
      40      112      113 1
      41      111      114 1
      42      111      181 1
      43      110      113 1
      44      110      114 1
      45      109      112 1
      46      109      111 1
      47      105      143 1
      48      104      105 1
      49      103      106 1
      50      103      193 1
      51      102      105 1
      52      102      106 1
      53      101      104 1
      54      101      103 1
      55      100      125 1
      56       99      114 1
      57       98      109 1
      58       97      106 1
      59       96      117 1
      60       95      101 1
      61       94      130 1
      62       93      121 1
      63       90       96 1
      64       89       99 1
      65       88       89 1
      66       87       90 1
      67       86       89 1
      68       86       90 1
      69       85       88 1
      70       85       87 1
      71       82       97 1
      72       81       98 1
      73       80       81 1
      74       79       82 1
      75       78       81 1
      76       78       82 1
      77       77       80 1
      78       77       79 1
      79       74       94 1
      80       73       95 1
      81       72       73 1
      82       71       74 1
      83       70       73 1
      84       70       74 1
      85       69       72 1
      86       69       71 1
      87       66      100 1
      88       65       93 1
      89       64       65 1
      90       63       66 1
      91       62       65 1
      92       62       66 1
      93       61       64 1
      94       61       63 1
      95       59       69 1
      96       56       58 1
      97       56       61 1
      98       55       56 1
      99       53       77 1
     100       51       85 1
     101       50       53 1
     102       49       51 1
     103       48       51 1
     104       47       53 1
     105       46       59 1
     106       45       59 1
     107       43      158 1
     108       41      152 1
     109       36       37 1
     110       35       38 1
     111       35       47 1
     112       34       37 1
     113       34       38 1
     114       34       45 1
     115       33       36 1
     116       33       35 1
     117       31       33 1
     118       31      134 1
     119       29       37 1
     120       29      135 1
     121       26       29 1
     122       24       25 1
     123       24       58 1
     124       23       26 1
     125       22       25 1
     126       22       26 1
     127       22       46 1
     128       21       24 1
     129       21       23 1
     130       17       31 1
     131       16       17 1
     132       15       18 1
     133       15       49 1
     134       14       17 1
     135       14       18 1
     136       14       50 1
     137       13       16 1
     138       13       15 1
     139       11       21 1
     140       11       41 1
     141        9       13 1
     142        9       43 1
     143        7        9 1
     144        6       11 1
     145        5        6 1
     146        5       55 1
     147        4        7 1
     148        4       48 1
     149        3        6 1
     150        3        7 1
     151        2        5 1
     152        2        4 1
     153      193      194 1
     154      193      195 1
     155      193      196 1
     156      189      190 1
     157      189      191 1
     158      189      192 1
     159      185      186 1
     160      185      187 1
     161      185      188 1
     162      181      182 1
     163      181      183 1
     164      181      184 1
     165      158      159 1
     166      158      160 1
     167      155      156 1
     168      155      157 1
     169      152      153 1
     170      152      154 1
     171      149      150 1
     172      149      151 1
     173      135      137 1
     174      135      138 1
     175      134      139 1
     176      134      140 1
     177      128      131 1
     178      126      132 1
     179      119      123 1
     180      118      124 1
     181      112      115 1
     182      110      116 1
     183      104      107 1
     184      102      108 1
     185       88       92 1
     186       87       91 1
     187       86      172 1
     188       80       84 1
     189       79       83 1
     190       78      169 1
     191       72       76 1
     192       71       75 1
     193       70      170 1
     194       64       68 1
     195       63       67 1
     196       62      171 1
     197       59       60 1
     198       56       57 1
     199       53       54 1
     200       51       52 1
     201       43      133 1
     202       43       44 1
     203       41      136 1
     204       41       42 1
     205       38       40 1
     206       36       39 1
     207       31       32 1
     208       29       30 1
     209       25       28 1
     210       23       27 1
     211       18       20 1
     212       16       19 1
     213       11       12 1
     214        9       10 1
     215        3        8 1
     216        1        2 1
@<TRIPOS>SUBSTRUCTURE
       1 <0>             1 RESIDUE    0 **** ROOT      0
