@<TRIPOS>MOLECULE
3a
   41    44     1     0     0
SMALL
bcc


@<TRIPOS>ATOM
      1 O1          68.3710    33.0400    76.6910 o          1 UNK      -0.533100
      2 C2          67.8630    33.2790    75.5980 c          1 UNK       0.570100
      3 C3          67.5150    34.6510    75.0210 c3         1 UNK      -0.182400
      4 C4          67.5260    34.7860    73.4980 c3         1 UNK      -0.072400
      5 C5          68.5250    33.7910    72.8520 c3         1 UNK      -0.087700
      6 C6          68.2570    32.3180    73.2330 c3         1 UNK      -0.000400
      7 C7          67.5280    32.1670    74.5920 c3         1 UNK      -0.177400
      8 C8          67.5480    31.5340    72.1310 ca         1 UNK      -0.104300
      9 C9          67.1780    30.1850    72.3320 ca         1 UNK      -0.187000
     10 C10         66.5040    29.4780    71.3150 ca         1 UNK       0.101100
     11 O11         66.1230    28.1840    71.4970 oh         1 UNK      -0.497100
     12 C12         66.2050    30.1070    70.0940 ca         1 UNK      -0.129000
     13 C13         66.5400    31.4530    69.9000 ca         1 UNK      -0.115000
     14 C14         67.2110    32.1630    70.9100 ca         1 UNK       0.089100
     15 O15         67.4800    33.4780    70.6710 os         1 UNK      -0.321900
     16 C16         68.6100    34.0260    71.3280 c3         1 UNK       0.198400
     17 C17         68.7640    35.4860    70.9410 ca         1 UNK      -0.126300
     18 C18         67.7710    36.1260    70.1640 ca         1 UNK      -0.076500
     19 C19         67.9340    37.4600    69.7690 ca         1 UNK      -0.187000
     20 C20         69.0700    38.1780    70.1730 ca         1 UNK       0.130100
     21 O21         69.1940    39.4820    69.8080 oh         1 UNK      -0.495100
     22 C22         70.0620    37.5520    70.9520 ca         1 UNK      -0.187000
     23 C23         69.9140    36.2040    71.3260 ca         1 UNK      -0.076500
     24 H24         66.5250    34.9550    75.3630 hc         1 UNK       0.075700
     25 H25         68.2280    35.3780    75.4100 hc         1 UNK       0.075700
     26 H26         66.5130    34.6280    73.1270 hc         1 UNK       0.061200
     27 H27         67.7780    35.8160    73.2430 hc         1 UNK       0.061200
     28 H28         69.5010    33.9690    73.3060 hc         1 UNK       0.064700
     29 H29         69.2270    31.8380    73.3610 hc         1 UNK       0.063700
     30 H30         67.8520    31.2300    75.0460 hc         1 UNK       0.074200
     31 H31         66.4500    32.0780    74.4650 hc         1 UNK       0.074200
     32 H32         67.4050    29.6810    73.2580 ha         1 UNK       0.137000
     33 H33         66.4320    27.8160    72.3100 ho         1 UNK       0.418000
     34 H34         65.7240    29.5560    69.2990 ha         1 UNK       0.155000
     35 H35         66.2880    31.9370    68.9680 ha         1 UNK       0.154000
     36 H36         69.4810    33.4930    70.9410 h1         1 UNK       0.056700
     37 H37         66.8770    35.5930    69.8740 ha         1 UNK       0.143500
     38 H38         67.1810    37.9310    69.1540 ha         1 UNK       0.145000
     39 H39         69.9850    39.8850    70.1300 ho         1 UNK       0.420000
     40 H40         70.9360    38.1060    71.2640 ha         1 UNK       0.145000
     41 H41         70.6840    35.7210    71.9100 ha         1 UNK       0.143500
@<TRIPOS>BOND
     1     1     2 2
     2     2     7 1
     3     2     3 1
     4     3     4 1
     5     3    24 1
     6     3    25 1
     7     4     5 1
     8     4    26 1
     9     4    27 1
    10     5    16 1
    11     5     6 1
    12     5    28 1
    13     6     7 1
    14     6     8 1
    15     6    29 1
    16     7    30 1
    17     7    31 1
    18     8    14 ar
    19     8     9 ar
    20     9    10 ar
    21     9    32 1
    22    10    11 1
    23    10    12 ar
    24    11    33 1
    25    12    13 ar
    26    12    34 1
    27    13    14 ar
    28    13    35 1
    29    14    15 1
    30    15    16 1
    31    16    17 1
    32    16    36 1
    33    17    23 ar
    34    17    18 ar
    35    18    19 ar
    36    18    37 1
    37    19    20 ar
    38    19    38 1
    39    20    21 1
    40    20    22 ar
    41    21    39 1
    42    22    23 ar
    43    22    40 1
    44    23    41 1
@<TRIPOS>SUBSTRUCTURE
     1 UNK         1 TEMP              0 ****  ****    0 ROOT
